22

 C                 -2.24038412    1.01247545    0.00001138
 C                 -2.81603165   -0.25882977    0.00004364
 C                 -2.01828998   -1.40390469    0.00000766
 C                 -0.60069640   -1.30309505   -0.00001547
 C                 -0.00000267   -0.00000363   -0.00031493
 C                 -0.82816542    1.17176195   -0.00001353
 C                  0.24336164   -2.44646371    0.00000103
 C                  1.63217175   -2.30933160    0.00003851
 C                  2.22496622   -1.04593295    0.00001206
 C                  1.42886405    0.13133101   -0.00001150
 C                  1.99702302    1.43398956    0.00000967
 C                  1.18385956    2.56816647    0.00003564
 C                 -0.20667639    2.44983587    0.00000108
 H                 -2.86930998    1.89772561    0.00019480
 H                 -3.89712551   -0.35820646    0.00003354
 H                 -2.47530802   -2.38897010    0.00018116
 H                 -0.20881160   -3.43376238    0.00015858
 H                  2.25877660   -3.19590056    0.00002023
 H                  3.30656656   -0.94918434    0.00020308
 H                  3.07813488    1.53604112    0.00020098
 H                  1.63834408    3.55410956    0.00001343
 H                 -0.83126469    3.33815423    0.00016268

